T8_devkit_PCB
*SPICE Netlist generated by Advanced Sim server on 27/10/2022 17:13:53
.options MixedSimGenerated

*Schematic Netlist:
VV? NetV?_1 0 DC 0 PULSE(5 20 500n 10n 10n 500n 1u 0) AC 1 0

.PROBE {V(NetV?_1)} =PLOT(1) =AXIS(1) =UNITS(V)

*Selected Circuit Analyses:
.TRAN 0.5n 10u 0 0.5n

.END